Version 4
SHEET 1 6580 960
WIRE -816 -800 -864 -800
WIRE -688 -800 -736 -800
WIRE -1616 -720 -1712 -720
WIRE -1280 -720 -1360 -720
WIRE -864 -720 -864 -800
WIRE -816 -720 -864 -720
WIRE -688 -720 -688 -800
WIRE -688 -720 -752 -720
WIRE -208 -704 -256 -704
WIRE -80 -704 -144 -704
WIRE -256 -608 -256 -704
WIRE -208 -608 -256 -608
WIRE -80 -608 -80 -704
WIRE -80 -608 -144 -608
WIRE -864 -592 -864 -720
WIRE -816 -592 -864 -592
WIRE -1712 -576 -1712 -720
WIRE -1280 -576 -1280 -720
WIRE -688 -576 -688 -720
WIRE -688 -576 -752 -576
WIRE -640 -576 -688 -576
WIRE -512 -576 -560 -576
WIRE -416 -576 -512 -576
WIRE -960 -560 -960 -592
WIRE -880 -560 -960 -560
WIRE -816 -560 -880 -560
WIRE -512 -528 -512 -576
WIRE -960 -512 -960 -560
WIRE -880 -512 -880 -560
WIRE -256 -512 -256 -608
WIRE -208 -512 -256 -512
WIRE -80 -512 -80 -608
WIRE -80 -512 -144 -512
WIRE -1712 -448 -1712 -512
WIRE -1488 -448 -1488 -624
WIRE -1488 -448 -1712 -448
WIRE -1280 -448 -1280 -512
WIRE -1280 -448 -1488 -448
WIRE -880 -432 -880 -448
WIRE -880 -432 -960 -432
WIRE -960 -416 -960 -432
WIRE -512 -416 -512 -464
WIRE -256 -416 -256 -512
WIRE -208 -416 -256 -416
WIRE -80 -416 -80 -512
WIRE -80 -416 -144 -416
WIRE -544 -272 -640 -272
WIRE 336 -272 -368 -272
WIRE -640 -240 -640 -272
WIRE -192 -176 -240 -176
WIRE -64 -176 -128 -176
WIRE 160 -144 112 -144
WIRE 304 -144 240 -144
WIRE -640 -128 -640 -160
WIRE -544 -128 -640 -128
WIRE -640 -112 -640 -128
WIRE -368 -48 -368 -272
WIRE -336 -48 -368 -48
WIRE -240 -48 -240 -176
WIRE -240 -48 -256 -48
WIRE -192 -48 -240 -48
WIRE -64 -32 -64 -176
WIRE -64 -32 -128 -32
WIRE -16 -32 -64 -32
WIRE 112 -32 112 -144
WIRE 112 -32 64 -32
WIRE 160 -32 112 -32
WIRE -192 -16 -240 -16
WIRE 304 -16 304 -144
WIRE 304 -16 224 -16
WIRE 336 -16 336 -272
WIRE 336 -16 304 -16
WIRE 384 -16 336 -16
WIRE 160 0 112 0
WIRE -640 16 -640 -32
WIRE -544 16 -640 16
WIRE -240 80 -240 -16
WIRE 112 112 112 0
WIRE 112 272 -16 272
WIRE 272 272 272 208
WIRE 272 272 112 272
WIRE -16 304 -16 272
WIRE 272 320 272 272
WIRE 112 384 112 272
WIRE -16 432 -16 384
WIRE -16 432 -80 432
WIRE 48 432 -16 432
WIRE 272 432 272 384
WIRE 208 480 112 480
WIRE -16 512 -16 432
WIRE 272 560 272 528
WIRE -16 672 -16 592
WIRE 272 672 272 640
WIRE 272 672 -16 672
WIRE 272 720 272 672
FLAG -544 -128 0
FLAG -544 -272 Vcc+
FLAG -544 16 Vcc-
FLAG -160 -64 Vcc+
FLAG 192 16 Vcc+
FLAG -160 0 Vcc-
FLAG 192 -48 Vcc-
FLAG -640 192 0
FLAG -480 192 0
FLAG -640 112 U1+
FLAG -240 80 U1+
FLAG -480 112 U2-
FLAG 112 112 U2-
FLAG 384 -16 Vout1
FLAG 272 720 0
FLAG 272 208 Vcc+
FLAG -80 432 Vout1
FLAG -1488 -448 0
FLAG -960 -672 Vcc+
FLAG -784 -608 Vcc+
FLAG -784 -544 Vcc-
FLAG -512 -416 0
FLAG -960 -416 0
FLAG -80 -608 120
FLAG -80 -704 62+3
FLAG -80 -512 200+3
FLAG -80 -416 330+11
FLAG -256 -416 0
SYMBOL OpAmps\\opamp2 -160 -96 R0
SYMATTR InstName U1
SYMATTR Value TLC081
SYMBOL OpAmps\\opamp2 192 48 M180
SYMATTR InstName U2
SYMATTR Value TLC081
SYMBOL voltage -640 -256 R0
WINDOW 123 0 0 Left 0
WINDOW 39 0 0 Left 0
SYMATTR InstName V1
SYMATTR Value 5
SYMBOL voltage -640 -128 R0
WINDOW 123 0 0 Left 0
WINDOW 39 0 0 Left 0
SYMATTR InstName V2
SYMATTR Value 0
SYMBOL res -240 -64 R90
WINDOW 0 0 56 VBottom 2
WINDOW 3 32 56 VTop 2
SYMATTR InstName R8
SYMATTR Value 68k
SYMBOL res 80 -48 R90
WINDOW 0 0 56 VBottom 2
WINDOW 3 32 56 VTop 2
SYMATTR InstName R9
SYMATTR Value 15k
SYMBOL res 256 -160 R90
WINDOW 0 0 56 VBottom 2
WINDOW 3 32 56 VTop 2
SYMATTR InstName R11
SYMATTR Value 27k
SYMBOL cap -128 -192 R90
WINDOW 0 0 32 VBottom 2
WINDOW 3 32 32 VTop 2
SYMATTR InstName Cmod
SYMATTR Value 470p
SYMBOL voltage -640 96 R0
WINDOW 123 0 0 Left 0
WINDOW 39 0 0 Left 0
SYMATTR InstName V3
SYMATTR Value 2.2
SYMBOL voltage -480 96 R0
WINDOW 123 0 0 Left 0
WINDOW 39 0 0 Left 0
SYMATTR InstName V4
SYMATTR Value 2.2
SYMBOL res -32 496 R0
SYMATTR InstName R7
SYMATTR Value 15k
SYMBOL npn2 48 384 R0
SYMATTR InstName Q1
SYMATTR Value BC547B
SYMBOL npn2 208 432 R0
SYMATTR InstName Q2
SYMATTR Value BC547B
SYMBOL res 256 544 R0
SYMATTR InstName R10
SYMATTR Value 33
SYMBOL LED 256 320 R0
SYMATTR InstName D1
SYMATTR Value KA3529
SYMATTR Description Diode
SYMATTR Type diode
SYMBOL res -32 288 R0
SYMATTR InstName R6
SYMATTR Value 100k
SYMBOL cap -144 -432 R90
WINDOW 0 0 32 VBottom 2
WINDOW 3 32 32 VTop 2
SYMATTR InstName C9
SYMATTR Value 341p
SYMBOL cap -144 -528 R90
WINDOW 0 0 32 VBottom 2
WINDOW 3 32 32 VTop 2
SYMATTR InstName C8
SYMATTR Value 203p
SYMBOL cap -144 -624 R90
WINDOW 0 0 32 VBottom 2
WINDOW 3 32 32 VTop 2
SYMATTR InstName C7
SYMATTR Value 120p
SYMBOL cap -144 -720 R90
WINDOW 0 0 32 VBottom 2
WINDOW 3 32 32 VTop 2
SYMATTR InstName C6
SYMATTR Value 65p
SYMBOL cap -1728 -576 R0
SYMATTR InstName C2
SYMATTR Value 0.33µ
SYMBOL cap -1296 -576 R0
SYMATTR InstName C3
SYMATTR Value 0.01µ
SYMBOL PowerProducts\\LT1086-5 -1488 -720 R0
SYMATTR InstName U3
SYMBOL OpAmps\\opamp2 -784 -640 R0
SYMATTR InstName U4
SYMATTR Value TLC081
SYMBOL res -720 -816 R90
WINDOW 0 0 56 VBottom 2
WINDOW 3 32 56 VTop 2
SYMATTR InstName R1
SYMATTR Value 10k
SYMBOL res -944 -576 R180
WINDOW 0 36 76 Left 2
WINDOW 3 36 40 Left 2
SYMATTR InstName R3
SYMATTR Value 680
SYMBOL res -656 -560 R270
WINDOW 0 32 56 VTop 2
WINDOW 3 0 56 VBottom 2
SYMATTR InstName R4
SYMATTR Value 560
SYMBOL res -944 -416 R180
WINDOW 0 36 76 Left 2
WINDOW 3 36 40 Left 2
SYMATTR InstName R5
SYMATTR Value 560
SYMBOL cap -752 -736 R90
WINDOW 0 0 32 VBottom 2
WINDOW 3 32 32 VTop 2
SYMATTR InstName C1
SYMATTR Value 10p
SYMBOL cap -528 -528 R0
SYMATTR InstName C4
SYMATTR Value 22p
SYMBOL cap -896 -512 R0
SYMATTR InstName C5
SYMATTR Value 22p
TEXT -672 272 Left 2 !.include TLC081.mod
TEXT -672 304 Left 2 !.tran 0 10m 9.9m
TEXT -672 896 Left 2 !.model BC547B NPN(IS=2.39E-14 NF=1.008 ISE=3.545E-15 NE=1.541 BF=294.3 IKF=0.1357 VAF=63.2 NR=1.004 ISC=6.272E-14 NC=1.243 BR=7.946 IKR=0.1144 VAR=25.9 RB=1 IRB=1.00E-06 RBM=1 RE=0.4683 RC=0.85 XTB=0 EG=1.11 XTI=3 CJE=1.358E-11 VJE=0.65 MJE=0.3279 TF=4.391E-10 XTF=120 VTF=2.643 ITF=0.7495 PTF=0 CJC=3.728E-12 VJC=0.3997 MJC=0.2955 XCJC=0.6193 TR=1.00E-32 CJS=0 VJS=0.75 MJS=0.333 FC=0.9579 Vceo=45 Icrating=100m mfg=Philips)
TEXT -664 944 Left 2 !.include KA3529.txt
