Version 4
SHEET 1 880 680
WIRE -544 -272 -640 -272
WIRE 688 -256 -32 -256
WIRE -640 -240 -640 -272
WIRE -640 -128 -640 -160
WIRE -544 -128 -640 -128
WIRE -640 -112 -640 -128
WIRE 160 -80 112 -80
WIRE 288 -80 224 -80
WIRE 512 -48 464 -48
WIRE 656 -48 592 -48
WIRE -640 16 -640 -32
WIRE -544 16 -640 16
WIRE -32 48 -32 -256
WIRE 16 48 -32 48
WIRE 112 48 112 -80
WIRE 112 48 96 48
WIRE 160 48 112 48
WIRE 288 64 288 -80
WIRE 288 64 224 64
WIRE 336 64 288 64
WIRE 464 64 464 -48
WIRE 464 64 416 64
WIRE 512 64 464 64
WIRE 160 80 112 80
WIRE 656 80 656 -48
WIRE 656 80 576 80
WIRE 688 80 688 -256
WIRE 688 80 656 80
WIRE 736 80 688 80
WIRE 512 96 464 96
WIRE 112 176 112 80
WIRE 464 208 464 96
FLAG -544 -128 0
FLAG -544 -272 Vcc+
FLAG -544 16 Vcc-
FLAG 192 32 Vcc+
FLAG 544 112 Vcc+
FLAG 192 96 Vcc-
FLAG 544 48 Vcc-
FLAG -352 -64 0
FLAG -192 -64 0
FLAG -352 -144 U1+
FLAG 112 176 U1+
FLAG -192 -144 U2-
FLAG 464 208 U2-
FLAG 736 80 Vout
SYMBOL OpAmps\\opamp2 192 0 R0
SYMATTR InstName U1
SYMATTR Value LM324
SYMBOL OpAmps\\opamp2 544 144 M180
SYMATTR InstName U2
SYMATTR Value LM324
SYMBOL voltage -640 -256 R0
WINDOW 123 0 0 Left 0
WINDOW 39 0 0 Left 0
SYMATTR InstName V1
SYMATTR Value 5
SYMBOL voltage -640 -128 R0
WINDOW 123 0 0 Left 0
WINDOW 39 0 0 Left 0
SYMATTR InstName V2
SYMATTR Value 0
SYMBOL res 112 32 R90
WINDOW 0 0 56 VBottom 2
WINDOW 3 32 56 VTop 2
SYMATTR InstName R1
SYMATTR Value 1k
SYMBOL res 432 48 R90
WINDOW 0 0 56 VBottom 2
WINDOW 3 32 56 VTop 2
SYMATTR InstName R2
SYMATTR Value 10k
SYMBOL res 608 -64 R90
WINDOW 0 0 56 VBottom 2
WINDOW 3 32 56 VTop 2
SYMATTR InstName R3
SYMATTR Value 82k
SYMBOL cap 224 -96 R90
WINDOW 0 0 32 VBottom 2
WINDOW 3 32 32 VTop 2
SYMATTR InstName C1
SYMATTR Value 44µ
SYMBOL voltage -352 -160 R0
WINDOW 123 0 0 Left 0
WINDOW 39 0 0 Left 0
SYMATTR InstName V3
SYMATTR Value 1.75
SYMBOL voltage -192 -160 R0
WINDOW 123 0 0 Left 0
WINDOW 39 0 0 Left 0
SYMATTR InstName V4
SYMATTR Value 1.75
TEXT -336 240 Left 2 !.include LM324.lib
TEXT -674 298 Left 2 !.tran 0 5 1
