Version 4
SHEET 1 880 680
WIRE -544 -272 -640 -272
WIRE 336 -272 -368 -272
WIRE -640 -240 -640 -272
WIRE -192 -176 -240 -176
WIRE -64 -176 -128 -176
WIRE 160 -144 112 -144
WIRE 304 -144 240 -144
WIRE -640 -128 -640 -160
WIRE -544 -128 -640 -128
WIRE -640 -112 -640 -128
WIRE -368 -48 -368 -272
WIRE -336 -48 -368 -48
WIRE -240 -48 -240 -176
WIRE -240 -48 -256 -48
WIRE -192 -48 -240 -48
WIRE -64 -32 -64 -176
WIRE -64 -32 -128 -32
WIRE -16 -32 -64 -32
WIRE 112 -32 112 -144
WIRE 112 -32 64 -32
WIRE 160 -32 112 -32
WIRE -192 -16 -240 -16
WIRE 304 -16 304 -144
WIRE 304 -16 224 -16
WIRE 336 -16 336 -272
WIRE 336 -16 304 -16
WIRE 384 -16 336 -16
WIRE 160 0 112 0
WIRE -640 16 -640 -32
WIRE -544 16 -640 16
WIRE -240 80 -240 -16
WIRE 112 112 112 0
FLAG -544 -128 0
FLAG -544 -272 Vcc+
FLAG -544 16 Vcc-
FLAG -160 -64 Vcc+
FLAG 192 16 Vcc+
FLAG -160 0 Vcc-
FLAG 192 -48 Vcc-
FLAG -640 192 0
FLAG -480 192 0
FLAG -640 112 U1+
FLAG -240 80 U1+
FLAG -480 112 U2-
FLAG 112 112 U2-
FLAG 384 -16 Vout
SYMBOL OpAmps\\opamp2 -160 -96 R0
SYMATTR InstName U1
SYMATTR Value TLC081
SYMBOL OpAmps\\opamp2 192 48 M180
SYMATTR InstName U2
SYMATTR Value TLC081
SYMBOL voltage -640 -256 R0
WINDOW 123 0 0 Left 0
WINDOW 39 0 0 Left 0
SYMATTR InstName V1
SYMATTR Value 5
SYMBOL voltage -640 -128 R0
WINDOW 123 0 0 Left 0
WINDOW 39 0 0 Left 0
SYMATTR InstName V2
SYMATTR Value 0
SYMBOL res -240 -64 R90
WINDOW 0 0 56 VBottom 2
WINDOW 3 32 56 VTop 2
SYMATTR InstName R1
SYMATTR Value 56k
SYMBOL res 80 -48 R90
WINDOW 0 0 56 VBottom 2
WINDOW 3 32 56 VTop 2
SYMATTR InstName R2
SYMATTR Value 15k
SYMBOL res 256 -160 R90
WINDOW 0 0 56 VBottom 2
WINDOW 3 32 56 VTop 2
SYMATTR InstName R3
SYMATTR Value 22k
SYMBOL cap -128 -192 R90
WINDOW 0 0 32 VBottom 2
WINDOW 3 32 32 VTop 2
SYMATTR InstName C1
SYMATTR Value 44p
SYMBOL voltage -640 96 R0
WINDOW 123 0 0 Left 0
WINDOW 39 0 0 Left 0
SYMATTR InstName V3
SYMATTR Value 2.2
SYMBOL voltage -480 96 R0
WINDOW 123 0 0 Left 0
WINDOW 39 0 0 Left 0
SYMATTR InstName V4
SYMATTR Value 2.2
TEXT -672 272 Left 2 !.include TLC081.mod
TEXT -672 304 Left 2 !.tran 0 10m 9.9m
