Version 4
SHEET 1 880 680
WIRE -192 96 -272 96
WIRE 480 96 368 96
WIRE -272 160 -272 96
WIRE 368 160 368 96
WIRE -272 320 -272 240
FLAG -272 320 0
FLAG -112 96 0
FLAG 560 96 0
FLAG 368 240 0
SYMBOL current -272 160 R0
WINDOW 123 0 0 Left 0
WINDOW 39 0 0 Left 0
SYMATTR InstName I2
SYMATTR Value PULSE(0 0.1 0 1n 1n 0.05m 0.1m)
SYMBOL res -96 80 R90
WINDOW 0 0 56 VBottom 2
WINDOW 3 32 56 VTop 2
SYMATTR InstName R2
SYMATTR Value 50
SYMBOL res 576 80 R90
WINDOW 0 0 56 VBottom 2
WINDOW 3 32 56 VTop 2
SYMATTR InstName R1
SYMATTR Value 50
SYMBOL bi 368 160 R0
SYMATTR InstName B1
SYMATTR Value I=1.5e-6*I(R2)
TEXT -306 344 Left 2 !.tran 10m
