Version 4
SHEET 1 3396 980
WIRE 576 -608 480 -608
WIRE 704 -608 640 -608
WIRE 752 -608 704 -608
WIRE 2016 -560 2016 -688
WIRE 2128 -560 2016 -560
WIRE 2288 -512 2192 -512
WIRE 2480 -512 2368 -512
WIRE 2128 -496 2128 -560
WIRE 480 -464 480 -608
WIRE 480 -464 208 -464
WIRE 576 -464 480 -464
WIRE 704 -464 704 -608
WIRE 704 -464 656 -464
WIRE 2016 -432 2016 -560
WIRE 208 -400 208 -464
WIRE 208 -400 80 -400
WIRE 336 -400 208 -400
WIRE 80 -352 80 -400
WIRE 336 -352 336 -400
WIRE -448 -336 -448 -416
WIRE 208 -336 208 -400
WIRE 608 -304 608 -336
WIRE 2256 -304 2256 -368
WIRE 480 -288 480 -464
WIRE 576 -288 480 -288
WIRE 2128 -288 2128 -416
WIRE 2192 -288 2192 -512
WIRE 2192 -288 2128 -288
WIRE 2224 -288 2192 -288
WIRE 752 -272 752 -608
WIRE 752 -272 640 -272
WIRE 960 -272 752 -272
WIRE 2480 -272 2480 -512
WIRE 2480 -272 2288 -272
WIRE 2656 -272 2480 -272
WIRE 576 -256 448 -256
WIRE 1872 -256 1808 -256
WIRE 2016 -256 2016 -352
WIRE 2016 -256 1936 -256
WIRE 2224 -256 2016 -256
WIRE 80 -224 80 -272
WIRE 208 -224 208 -272
WIRE 208 -224 80 -224
WIRE 336 -224 336 -272
WIRE 336 -224 208 -224
WIRE 2256 -208 2256 -240
WIRE 208 -192 208 -224
WIRE -448 -144 -448 -256
WIRE 608 -144 608 -240
WIRE 704 368 704 272
WIRE 2784 400 2784 336
WIRE 544 512 544 416
WIRE 2592 512 2592 448
WIRE 416 528 416 464
WIRE 512 528 416 528
WIRE 2448 528 2448 480
WIRE 2560 528 2448 528
WIRE 704 544 704 448
WIRE 704 544 576 544
WIRE 992 544 704 544
WIRE 2960 544 2624 544
WIRE 3136 544 3040 544
WIRE 3248 544 3136 544
WIRE 240 560 176 560
WIRE 432 560 320 560
WIRE 512 560 432 560
WIRE 1664 560 1616 560
WIRE 1872 560 1728 560
WIRE 1952 560 1872 560
WIRE 2176 560 2016 560
WIRE 2288 560 2176 560
WIRE 2448 560 2368 560
WIRE 2560 560 2448 560
WIRE 544 608 544 576
WIRE 3136 608 3136 544
WIRE 2592 624 2592 576
WIRE 1872 688 1872 560
WIRE 1952 688 1872 688
WIRE 2112 688 2032 688
WIRE 2176 688 2176 560
WIRE 2176 688 2112 688
WIRE 3136 736 3136 672
WIRE 432 752 432 560
WIRE 512 752 432 752
WIRE 704 752 704 544
WIRE 704 752 592 752
WIRE 2112 752 2112 688
WIRE 2448 752 2448 560
WIRE 2592 752 2448 752
WIRE 2784 752 2784 480
WIRE 2784 752 2672 752
WIRE 2112 896 2112 832
FLAG 208 -192 0
FLAG 608 -144 0
FLAG 608 -336 Vcc+
FLAG 448 -256 U1+
FLAG 960 -272 Vout1
FLAG 2256 -208 0
FLAG 2256 -368 Vcc+
FLAG 1808 -256 Vout1
FLAG 2656 -272 Vout2
FLAG 176 560 Vout2
FLAG 544 608 0
FLAG 544 416 Vcc+
FLAG 704 272 Vcc+
FLAG 992 544 Vout3
FLAG 2112 896 0
FLAG 1616 560 Vout3
FLAG 2592 624 0
FLAG 2592 448 Vcc+
FLAG 2784 336 Vcc+
FLAG 3136 736 0
FLAG 3248 544 Vout4
FLAG 2448 480 U1+
FLAG 416 464 U1+
FLAG 2016 -688 U1+
FLAG -448 -416 U1+
FLAG -448 -144 0
SYMBOL res 672 -480 R90
WINDOW 0 0 56 VBottom 2
WINDOW 3 32 56 VTop 2
SYMATTR InstName R1
SYMATTR Value G = 50
SYMBOL cap 640 -624 R90
WINDOW 0 0 32 VBottom 2
WINDOW 3 32 32 VTop 2
SYMATTR InstName C1
SYMBOL OpAmps\\opamp2 608 -336 R0
SYMATTR InstName U1
SYMATTR Value TLC081
SYMBOL cap 1936 -272 R90
WINDOW 0 0 32 VBottom 2
WINDOW 3 32 32 VTop 2
SYMATTR InstName C2
SYMBOL OpAmps\\opamp2 2256 -336 R0
SYMATTR InstName U2
SYMATTR Value TLC081
SYMBOL res 2000 -448 R0
SYMATTR InstName R2
SYMBOL res 2112 -512 R0
SYMATTR InstName R3
SYMBOL res 2384 -528 R90
WINDOW 0 0 56 VBottom 2
WINDOW 3 32 56 VTop 2
SYMATTR InstName R4
SYMBOL OpAmps\\opamp2 544 480 R0
SYMATTR InstName U3
SYMATTR Value TLC081
SYMBOL res 336 544 R90
WINDOW 0 0 56 VBottom 2
WINDOW 3 32 56 VTop 2
SYMATTR InstName R5
SYMBOL res 608 736 R90
WINDOW 0 0 56 VBottom 2
WINDOW 3 32 56 VTop 2
SYMATTR InstName R6
SYMBOL res 688 352 R0
SYMATTR InstName R7
SYMBOL OpAmps\\opamp2 2592 480 R0
SYMATTR InstName U4
SYMATTR Value TLC081
SYMBOL diode 1664 576 R270
WINDOW 0 32 32 VTop 2
WINDOW 3 0 32 VBottom 2
SYMATTR InstName D2
SYMATTR Value 1N4007
SYMBOL cap 2016 544 R90
WINDOW 0 0 32 VBottom 2
WINDOW 3 32 32 VTop 2
SYMATTR InstName C3
SYMBOL res 2048 672 R90
WINDOW 0 0 56 VBottom 2
WINDOW 3 32 56 VTop 2
SYMATTR InstName R8
SYMBOL res 2096 736 R0
SYMATTR InstName R9
SYMBOL res 2384 544 R90
WINDOW 0 0 56 VBottom 2
WINDOW 3 32 56 VTop 2
SYMATTR InstName R10
SYMBOL res 2688 736 R90
WINDOW 0 0 56 VBottom 2
WINDOW 3 32 56 VTop 2
SYMATTR InstName R11
SYMBOL res 3056 528 R90
WINDOW 0 0 56 VBottom 2
WINDOW 3 32 56 VTop 2
SYMATTR InstName R12
SYMBOL res 2768 384 R0
SYMATTR InstName R13
SYMBOL cap 3120 608 R0
SYMATTR InstName C4
SYMBOL voltage -448 -352 R0
WINDOW 123 0 0 Left 0
WINDOW 39 0 0 Left 0
SYMATTR InstName V1
SYMATTR Value 2.2
SYMBOL current 80 -352 R0
SYMATTR InstName I1
SYMBOL cap 192 -336 R0
SYMATTR InstName C0
SYMATTR Value 4p
SYMBOL res 320 -368 R0
SYMATTR InstName Rleak
TEXT -408 -976 Left 2 !.model 1N4007 D(IS=7.02767n RS=0.0341512 N=1.80803 EG=1.05743 XTI=5 BV=1000 IBV=5e-08 CJO=1e-11 VJ=0.7 M=0.5 FC=0.5 TT=1e-07 mfg=OnSemi type=silicon)
TEXT -400 -920 Left 2 !.include TLC081.mod
LINE Normal 1232 -736 -16 -736 2
LINE Normal 1232 -48 1232 -736 2
LINE Normal -16 -48 1232 -48 2
LINE Normal -16 -720 -16 -48 2
LINE Normal -16 -736 -16 -720 2
RECTANGLE Normal 2976 -32 1488 -768 2
RECTANGLE Normal 1216 864 -16 144 2
RECTANGLE Normal 3392 976 1456 160 2
